%mem=3500MB
%nproc=2
#p B3LYP/6-311+G** NMR=SPINSPIN

empty

0 1
6     -0.245840   2.169456   0.124200
6      0.626935   1.140390   0.870052
8     -0.295247   0.300551   1.570527
6     -1.606181   0.351016   0.960773
6     -1.540752   1.383415  -0.172470
6      1.456602   0.277644  -0.087017
6     -1.953988  -1.072453   0.529183
7     -3.347353  -1.087264   0.037757
7     -3.722732  -2.142731  -0.478400
7     -4.189216  -3.058489  -0.978580
8      1.148752   0.070715  -1.252639
8      2.518163  -0.249822   0.522162
6      3.364191  -1.173322  -0.243144
6      3.971430  -2.121665   0.779804
6      4.394316  -0.368554  -1.026830
1      4.594392  -1.575246   1.495982
1      4.597967  -2.863468   0.273092
1      3.189793  -2.650085   1.334090
1      2.708182  -1.711387  -0.932672
1      3.904038   0.299720  -1.740079
1      5.047933  -1.046111  -1.587171
1      5.015372   0.227356  -0.349217
1     -1.432877   0.878771  -1.143756
1     -1.841436  -1.742579   1.391479
1     -1.255131  -1.398933  -0.252531
1      1.292947   1.591902   1.610188
1     -0.501582   2.975565   0.819605
1     -2.324037   0.695489   1.713984
8      0.341440   2.787216  -0.999629
1     -0.330833   3.399814  -1.350717
8     -2.701738   2.193158  -0.150559
1     -2.740847   2.608482   0.726079

